Version 4
SHEET 1 2304 1840
WIRE 48 240 -176 240
WIRE -176 288 -176 240
WIRE 576 336 496 336
WIRE 592 336 576 336
WIRE 688 336 592 336
WIRE 48 352 48 240
WIRE -176 384 -176 368
WIRE 496 384 496 336
WIRE 192 416 160 416
WIRE 320 416 272 416
WIRE 592 416 592 336
WIRE 688 416 688 336
WIRE 0 432 -96 432
WIRE 320 432 320 416
WIRE 352 432 320 432
WIRE -96 448 -96 432
WIRE 48 464 48 448
WIRE 160 464 160 416
WIRE 160 464 48 464
WIRE 704 480 688 480
WIRE -96 496 -96 448
WIRE 48 496 48 464
WIRE 592 512 592 480
WIRE 656 512 592 512
WIRE 688 512 688 480
WIRE 688 512 656 512
WIRE 656 544 656 512
WIRE 496 576 496 528
WIRE -96 608 -96 576
WIRE -96 608 -112 608
WIRE 48 608 48 576
WIRE -112 624 -112 608
WIRE 656 640 656 624
FLAG -112 624 0
FLAG 496 576 0
FLAG 656 640 0
FLAG -96 448 Vpwm
FLAG 320 416 Vbase
FLAG 576 336 Vsol
FLAG -176 384 0
FLAG 48 608 0
SYMBOL voltage -96 480 R0
WINDOW 3 -195 176 Left 2
WINDOW 123 0 0 Left 2
WINDOW 39 0 0 Left 2
SYMATTR Value PULSE(0 5 .1u 0.0001u 0.0001u .1u .2u)
SYMATTR InstName V1
SYMBOL res 288 400 R90
WINDOW 0 0 56 VBottom 2
WINDOW 3 32 56 VTop 2
SYMATTR InstName R1
SYMATTR Value 5k
SYMBOL FerriteBead 592 448 R0
SYMATTR InstName L1
SYMATTR Value 15m
SYMATTR SpiceLine Rser=3
SYMBOL diode 672 416 R0
SYMATTR InstName D1
SYMATTR Value BA157GP
SYMBOL voltage 656 528 R0
WINDOW 123 0 0 Left 2
WINDOW 39 0 0 Left 2
SYMATTR InstName V2
SYMATTR Value 5
SYMBOL Darlington\\TIP120 368 384 R0
SYMATTR InstName U1
SYMBOL nmos 0 352 R0
SYMATTR InstName M1
SYMATTR Value 2N7000
SYMBOL voltage -176 272 R0
WINDOW 123 0 0 Left 2
WINDOW 39 0 0 Left 2
SYMATTR InstName V3
SYMATTR Value 5
SYMBOL res 32 480 R0
SYMATTR InstName R2
SYMATTR Value 5k
TEXT -440 56 Left 2 !.MODEL BA157GP D\n+   IS =  1.366e-08  \n+   RS =  0.09599  \n+   CJO =  3.067e-11  \n+   VJ =  0.3905  \n+   TT =  3.699e-07  \n+   M =  0.3408  \n+   BV =  100  \n+   N =  2  \n+   EG =  1.11  \n+   XTI =  3  \n+   KF =  0  \n+   AF =  1  \n+   FC =  0.5  \n+   IBV =  0.0001  \n+   TNOM =  27
TEXT -440 696 Left 2 !.tran 0 20m 0 0.01m
TEXT -104 736 Left 2 !inc. http://www.onsemi.com/pub_link/Collateral/2N7000.REV0.LIB
